Version 4
SHEET 1 880 680
WIRE 112 80 112 48
WIRE 176 80 176 48
WIRE 256 176 208 176
WIRE 176 224 112 224
FLAG 112 80 0
FLAG 176 80 0
FLAG 208 176 0
IOPIN 208 176 In
FLAG 176 224 0
IOPIN 176 224 Out
FLAG 256 96 COM
