Version 4
SHEET 1 880 680
FLAG 192 128 0
IOPIN 192 128 In
FLAG 192 192 Someext
IOPIN 192 192 In
FLAG 272 128 0
