Version 4
SHEET 1 1120 1112
WIRE -16 80 -96 80
WIRE 304 80 208 80
SYMBOL Misc\\NE555 96 176 R180
SYMATTR InstName U1
SYMBOL Misc\\LT5401 384 608 R0
SYMATTR InstName U2
SYMBOL Misc\\LT5401 832 560 R90
SYMATTR InstName U3
SYMBOL Misc\\NE555 80 592 R90
SYMATTR InstName U4
SYMBOL Misc\\NE555 32 992 R270
SYMATTR InstName U5
