Version 4
SHEET 1 880 680
WIRE 240 0 112 0
WIRE 352 0 240 0
WIRE 112 48 112 0
WIRE 240 48 240 0
WIRE 352 48 352 0
WIRE 112 192 112 128
WIRE 240 192 240 128
WIRE 240 192 112 192
WIRE 352 192 352 128
WIRE 352 192 240 192
SYMBOL voltage 112 32 R0
SYMATTR InstName V1
SYMBOL res 224 32 R0
SYMATTR InstName R1
SYMBOL res 336 32 R0
SYMATTR InstName R2
