Version 4
SHEET 1 880 680
WIRE 384 -48 -48 -48
WIRE 384 32 384 -48
WIRE 320 80 176 80
WIRE -176 128 -240 128
WIRE -48 128 -48 -48
WIRE -48 128 -96 128
WIRE 0 128 -48 128
WIRE 112 128 80 128
WIRE 384 272 384 208
WIRE 176 288 176 256
WIRE 176 400 176 368
FLAG -240 128 0
FLAG 176 400 0
FLAG 384 272 0
SYMBOL npn 112 80 R0
SYMATTR InstName Q1
SYMBOL res 96 112 R90
WINDOW 0 0 56 VBottom 2
WINDOW 3 32 56 VTop 2
SYMATTR InstName R1
SYMATTR Value 100
SYMBOL voltage -80 128 R90
WINDOW 0 -32 56 VBottom 2
WINDOW 3 32 56 VTop 2
WINDOW 123 0 0 Left 0
WINDOW 39 0 0 Left 0
SYMATTR InstName V1
SYMATTR Value 5v
SYMBOL voltage 176 272 R0
WINDOW 123 0 0 Left 0
WINDOW 39 0 0 Left 0
SYMATTR InstName V2
SYMATTR Value 5v
SYMBOL res 160 160 R0
SYMATTR InstName R2
SYMATTR Value 2700
SYMBOL npn 320 32 R0
SYMATTR InstName Q2
SYMBOL res 368 112 R0
SYMATTR InstName R3
SYMATTR Value 2700
TEXT -100 424 Left 2 !.tran 1
