Version 4
SHEET 1 880 680
FLAG 112 64 0
SYMBOL res 96 48 R0
SYMATTR InstName R1
