Version 4
SHEET 1 880 680
WIRE 448 -112 416 -112
WIRE 480 -112 448 -112
WIRE 336 -48 336 -112
WIRE 336 0 336 -48
WIRE 448 0 448 -112
WIRE 448 0 384 0
WIRE -80 48 -128 48
WIRE 16 48 -16 48
WIRE 64 48 16 48
WIRE 224 48 144 48
WIRE 320 48 224 48
WIRE 464 48 400 48
WIRE 528 48 464 48
WIRE 656 48 592 48
WIRE 224 112 224 48
WIRE 656 192 656 48
WIRE 224 224 224 192
WIRE 224 240 224 224
WIRE -128 304 -128 48
WIRE -80 304 -128 304
WIRE 16 304 -16 304
WIRE 48 304 16 304
WIRE 176 304 128 304
WIRE 464 304 464 48
WIRE 464 304 272 304
WIRE -128 448 -128 304
WIRE 656 448 656 272
WIRE 656 448 -128 448
WIRE 656 496 656 448
FLAG 656 496 0
FLAG 480 -112 0
FLAG 336 -48 n_sw
FLAG 16 48 n_cap
FLAG 16 304 net_led
FLAG 224 224 n_base
SYMBOL voltage 656 176 R0
WINDOW 123 0 0 Left 0
WINDOW 39 0 0 Left 0
SYMATTR InstName V1
SYMATTR Value 5
SYMBOL diode 592 32 R90
WINDOW 0 0 32 VBottom 2
WINDOW 3 32 32 VTop 2
SYMATTR InstName D1
SYMBOL npn 272 240 R90
SYMATTR InstName Q1
SYMATTR Value 2N2222
SYMBOL res 208 96 R0
SYMATTR InstName R1
SYMATTR Value 22000
SYMBOL res 144 288 R90
WINDOW 0 0 56 VBottom 2
WINDOW 3 32 56 VTop 2
SYMATTR InstName R2
SYMATTR Value 470
SYMBOL LED -16 288 R90
WINDOW 0 0 32 VBottom 2
WINDOW 3 72 32 VTop 2
SYMATTR InstName D2
SYMBOL res 160 32 R90
WINDOW 0 0 56 VBottom 2
WINDOW 3 32 56 VTop 2
SYMATTR InstName R3
SYMATTR Value 100
SYMBOL cap -16 32 R90
WINDOW 0 0 32 VBottom 2
WINDOW 3 32 32 VTop 2
SYMATTR InstName C1
SYMATTR Value .00001
SYMBOL sw 416 48 R90
WINDOW 0 64 39 VRight 2
WINDOW 3 44 19 VRight 2
SYMATTR InstName S1
SYMATTR Value MYSW
SYMBOL voltage 320 -112 R270
WINDOW 0 32 56 VTop 2
WINDOW 3 59 226 VBottom 2
WINDOW 123 0 0 Left 0
WINDOW 39 0 0 Left 0
SYMATTR InstName V2
SYMATTR Value PULSE(0 5 0 1m 1m 1 2 1)
TEXT -136 488 Left 2 !.tran 10
TEXT -136 512 Left 2 !.model MYSW SW (Ron=1 Roff=1MEG Vt=1 Vh=0.5)
