Version 4
SHEET 1 880 680
WIRE -80 48 -128 48
WIRE 64 48 -16 48
WIRE 272 48 144 48
WIRE 464 48 272 48
WIRE 528 48 464 48
WIRE 656 48 592 48
WIRE 272 112 272 48
WIRE 656 192 656 48
WIRE 272 240 272 192
WIRE -128 304 -128 48
WIRE -80 304 -128 304
WIRE 48 304 -16 304
WIRE 224 304 128 304
WIRE 464 304 464 48
WIRE 464 304 320 304
WIRE -128 448 -128 304
WIRE 656 448 656 272
WIRE 656 448 -128 448
WIRE 656 496 656 448
FLAG 656 496 0
SYMBOL voltage 656 176 R0
WINDOW 123 0 0 Left 0
WINDOW 39 0 0 Left 0
SYMATTR InstName V1
SYMATTR Value 5
SYMBOL diode 592 32 R90
WINDOW 0 0 32 VBottom 2
WINDOW 3 32 32 VTop 2
SYMATTR InstName D1
SYMBOL npn 320 240 R90
SYMATTR InstName Q1
SYMATTR Value 2N2222
SYMBOL res 256 96 R0
SYMATTR InstName R1
SYMATTR Value 22000
SYMBOL res 144 288 R90
WINDOW 0 0 56 VBottom 2
WINDOW 3 32 56 VTop 2
SYMATTR InstName R2
SYMATTR Value 470
SYMBOL LED -16 288 R90
WINDOW 0 0 32 VBottom 2
WINDOW 3 72 32 VTop 2
SYMATTR InstName D2
SYMBOL res 160 32 R90
WINDOW 0 0 56 VBottom 2
WINDOW 3 32 56 VTop 2
SYMATTR InstName R3
SYMATTR Value 100
SYMBOL cap -16 32 R90
WINDOW 0 0 32 VBottom 2
WINDOW 3 32 32 VTop 2
SYMATTR InstName C1
SYMATTR Value .00001
TEXT -134 488 Left 2 !.tran 1
