Version 4
SHEET 1 880 680
WIRE -192 -80 -480 -80
WIRE 240 -80 -192 -80
WIRE 400 -80 240 -80
WIRE -480 -16 -480 -80
WIRE 400 -16 400 -80
WIRE -32 64 -80 64
WIRE 240 64 240 -80
WIRE 240 64 192 64
WIRE -80 80 -80 64
WIRE -480 112 -480 64
WIRE -32 128 -128 128
WIRE 320 128 320 80
WIRE 320 128 192 128
WIRE 400 128 400 64
WIRE 400 128 320 128
WIRE 400 160 400 128
WIRE -32 192 -272 192
WIRE 304 192 192 192
WIRE -192 256 -192 -80
WIRE -32 256 -192 256
WIRE 224 256 192 256
WIRE -128 320 -128 128
WIRE -16 320 -128 320
WIRE 304 320 304 192
WIRE 304 320 -16 320
WIRE 400 320 400 240
WIRE 400 320 304 320
WIRE 224 352 224 256
WIRE 400 352 400 320
WIRE -16 384 -16 320
WIRE 400 416 400 384
WIRE 224 448 224 416
WIRE 400 448 400 416
WIRE 400 448 224 448
WIRE 224 496 224 448
FLAG -80 80 0
FLAG 224 496 0
FLAG -480 112 0
FLAG -272 192 OUT
IOPIN -272 192 Out
FLAG -16 384 trig
FLAG 320 80 disc
SYMBOL Misc\\NE555 80 160 R0
SYMATTR InstName U1
SYMBOL voltage -480 -32 R0
WINDOW 123 0 0 Left 0
WINDOW 39 0 0 Left 0
SYMATTR InstName V1
SYMATTR Value 9v
SYMBOL res 384 -32 R0
SYMATTR InstName R1
SYMATTR Value 1Meg
SYMBOL res 384 144 R0
SYMATTR InstName R2
SYMATTR Value 330k
SYMBOL cap 384 352 R0
SYMATTR InstName C1
SYMATTR Value 1µ
SYMBOL cap 208 352 R0
SYMATTR InstName C2
SYMATTR Value 10n
TEXT -370 32 Left 2 !.tran 4
